Circuit: * C:\windows\profiles\tlh24\My Documents\svn\myopen\emg_dsp\stage4\stage4_1.asc

Direct Newton iteration failed to find .op point.  (Use ".option noopiter" to skip.)
Starting Gmin stepping
Gmin = 10
vernier = 0.5
Gmin = 2.3014
vernier = 0.666667
vernier = 0.333333
vernier = 0.166667
Gmin = 1.05533
vernier = 0.0833333
vernier = 0.0416667
vernier = 0.0208333
vernier = 0.0104167
vernier = 0.00520833
Gmin = 1.08797
vernier = 0.00260417
vernier = 0.00130208
vernier = 0.000651042
vernier = 0.000488281
Gmin = 0
Gmin stepping failed

Starting source stepping with srcstepmethod=0
Source Step = 3.0303%
Source Step = 33.3333%
Source Step = 63.6364%
Source Step = 93.9394%
Source stepping succeeded in finding the operating point.


Date: Wed Jan 27 12:26:23 2010
Total elapsed time: 0.774 seconds.

tnom = 27
temp = 27
method = trap
totiter = 2227
traniter = 0
tranpoints = 0
accept = 0
rejected = 0
matrix size = 120
fillins = 258
solver = Normal
Matrix Compiler1:     933 opcodes
Matrix Compiler2: 14.3 KB object code size  3.9/5.8/[2.2]


